
  EPA STORM WATER MANAGEMENT MODEL - VERSION 5.1 (Build 5.1.013)
  --------------------------------------------------------------

  t Title/Notes 
   SW 1 0 8 8 9 9 10 A1 'STEVEN''S AVENUE DRAINAGE DISTRICT LANCASTER PA OLD S 
   WMM EXAMPLE.'A2 'STORM OF NOVEMBER 28 1973 RAINFALL DURATION 40 MIN.' STORM 
  
  
  *************
  Element Count
  *************
  Number of rain gages ...... 1
  Number of subcatchments ... 29
  Number of nodes ........... 50
  Number of links ........... 35
  Number of pollutants ...... 4
  Number of land uses ....... 1
  
  
  *****************
  Pollutant Summary
  *****************
                               Ppt.      GW         Kdecay
  Name                 Units   Concen.   Concen.    1/days    CoPollutant
  -----------------------------------------------------------------------
  TOT.SOL               MG/L     15.00      0.00      0.00
  SUS.SOL               MG/L      8.00      0.00      0.00
  BOD5                  MG/L      5.00      0.00      0.00
  COD                   MG/L     10.00      0.00      0.00
  
  
  ***************
  Landuse Summary
  ***************
                         Sweeping   Maximum      Last
  Name                   Interval   Removal     Swept
  ---------------------------------------------------
  FAMILY                     0.00      0.00      0.00
  
  
  ****************
  Raingage Summary
  ****************
                                                      Data       Recording
  Name                 Data Source                    Type       Interval 
  ------------------------------------------------------------------------
  GAGE1                RainSeries1                    INTENSITY    5 min.
  
  
  ********************
  Subcatchment Summary
  ********************
  Name                       Area     Width   %Imperv    %Slope Rain Gage            Outlet              
  -----------------------------------------------------------------------------------------------------------
  1                         26.82   2785.00     48.00    6.1000 GAGE1                1                   
  2                         10.55    817.00     48.00    5.1000 GAGE1                2                   
  3                          3.72    542.10     48.00    4.2000 GAGE1                3                   
  4                          7.33    690.00     48.00    4.1000 GAGE1                804                 
  5                          6.97    605.70     51.00    3.4000 GAGE1                805                 
  6                          3.73    746.50     47.00    4.6000 GAGE1                806                 
  7                          4.60    517.00     57.00    2.2000 GAGE1                807                 
  8                          3.90    786.50     53.00    3.6000 GAGE1                808                 
  9                          2.26    773.50     53.00    2.4000 GAGE1                809                 
  10                         2.21    576.20     53.00    4.5000 GAGE1                810                 
  11                         3.28    551.50     53.80    4.4000 GAGE1                811                 
  12                         5.17    688.50     48.00    2.7000 GAGE1                812                 
  13                         5.55    499.20     44.40    5.2000 GAGE1                813                 
  14                         8.54    536.60     49.60    4.6000 GAGE1                814                 
  15                         3.83    667.80     34.00    3.8000 GAGE1                815                 
  16                         3.67    306.70     34.00    4.8000 GAGE1                816                 
  17                         3.92    686.80     54.00    4.1000 GAGE1                817                 
  18                         3.34    297.20     53.00    3.6000 GAGE1                18                  
  19                         3.64    468.20     48.80    2.5000 GAGE1                819                 
  20                         6.83    676.60     48.00    5.2000 GAGE1                820                 
  21                         2.29    387.00     37.90    2.0000 GAGE1                821                 
  22                         2.21    537.90     33.10    2.6000 GAGE1                822                 
  23                         5.28    314.90     29.00    4.6000 GAGE1                23                  
  24                         5.15    584.10     29.00    2.8000 GAGE1                24                  
  25                         5.39    903.10     51.30    6.8000 GAGE1                825                 
  26                         7.68    662.50     46.70    5.4000 GAGE1                826                 
  27                         5.14    673.90     53.70    4.8000 GAGE1                827                 
  28                         8.63    592.20     57.00    5.3000 GAGE1                828                 
  29                         3.76    686.00     62.00    2.7000 GAGE1                829                 
  
  
  ************
  Node Summary
  ************
                                           Invert      Max.    Ponded    External
  Name                 Type                 Elev.     Depth      Area    Inflow  
  -------------------------------------------------------------------------------
  804                  JUNCTION              7.48     20.00       0.0
  805                  JUNCTION              5.24     20.00       0.0
  806                  JUNCTION             33.11     20.00       0.0
  807                  JUNCTION             19.91     20.00       0.0
  808                  JUNCTION            150.53     20.00       0.0
  809                  JUNCTION            141.88     20.00       0.0
  810                  JUNCTION            150.43     20.00       0.0
  811                  JUNCTION            154.27     20.00       0.0
  812                  JUNCTION              5.38     20.00       0.0
  813                  JUNCTION              8.92     20.00       0.0
  814                  JUNCTION             19.57     20.00       0.0
  815                  JUNCTION             21.56     20.00       0.0
  816                  JUNCTION             16.76     20.00       0.0
  817                  JUNCTION             12.82     20.00       0.0
  819                  JUNCTION              8.84     20.00       0.0
  820                  JUNCTION             11.87     20.00       0.0
  821                  JUNCTION             30.27     20.00       0.0
  822                  JUNCTION             17.93     20.00       0.0
  825                  JUNCTION             15.03     20.00       0.0
  826                  JUNCTION             30.76     20.00       0.0
  827                  JUNCTION             35.31     20.00       0.0
  828                  JUNCTION             15.49     20.00       0.0
  829                  JUNCTION             19.58     20.00       0.0
  906                  JUNCTION             12.31     20.00       0.0
  907                  JUNCTION             17.52     20.00       0.0
  908                  JUNCTION            126.72     20.00       0.0
  909                  JUNCTION            129.78     20.00       0.0
  910                  JUNCTION            133.65     20.00       0.0
  921                  JUNCTION             22.81     20.00       0.0
  922                  JUNCTION             12.70     20.00       0.0
  926                  JUNCTION              8.85     20.00       0.0
  927                  JUNCTION             24.66     20.00       0.0
  928                  JUNCTION              7.58     20.00       0.0
  930                  JUNCTION             16.76     20.00       0.0
  508                  JUNCTION            117.52     20.00       0.0
  4                    OUTFALL               0.00      1.50       0.0
  5                    OUTFALL               0.00      2.00       0.0
  12                   OUTFALL               0.00      0.67       0.0
  13                   OUTFALL               0.00      0.67       0.0
  14                   OUTFALL               0.00      1.00       0.0
  16                   OUTFALL               0.00      1.50       0.0
  19                   OUTFALL               0.00      1.00       0.0
  20                   OUTFALL               0.00      1.50       0.0
  25                   OUTFALL               0.00      2.00       0.0
  Out1                 OUTFALL               0.00      1.00       0.0
  Out2                 OUTFALL               0.00      0.00       0.0
  Out3                 OUTFALL               0.00      2.50       0.0
  Out4                 OUTFALL               0.00      1.00       0.0
  Out5                 OUTFALL               0.00      0.00       0.0
  Out6                 OUTFALL               0.00      2.00       0.0
  
  
  ************
  Link Summary
  ************
  Name             From Node        To Node          Type            Length    %Slope Roughness
  ---------------------------------------------------------------------------------------------
  508              508              907              CONDUIT          101.0  705.3456    0.0120
  804              804              4                CONDUIT          409.0    1.8292    0.0130
  805              805              Out1             CONDUIT          280.0    1.8718    0.0130
  806              806              906              CONDUIT          428.0    4.8656    0.0130
  807              807              907              CONDUIT          230.0    1.0392    0.0130
  808              808              908              CONDUIT          481.0    4.9562    0.0130
  809              809              909              CONDUIT          360.0    3.3630    0.0130
  810              810              910              CONDUIT          341.0    4.9268    0.0130
  811              811              808              CONDUIT          231.0    1.6193    0.0130
  812              812              12               CONDUIT          430.5    1.2498    0.0130
  813              813              13               CONDUIT          367.0    2.4312    0.0130
  814              814              14               CONDUIT          420.0    4.6646    0.0130
  815              815              814              CONDUIT           75.0    2.6543    0.0130
  816              816              16               CONDUIT          277.0    6.0616    0.0130
  817              817              813              CONDUIT          394.0    0.9899    0.0130
  819              819              19               CONDUIT          254.0    3.4824    0.0130
  820              820              Out6             CONDUIT          210.0    5.6614    0.0130
  821              821              921              CONDUIT          336.0    2.2208    0.0130
  822              822              922              CONDUIT          208.0    2.5152    0.0130
  825              825              Out4             CONDUIT          244.0    6.1716    0.0130
  826              826              926              CONDUIT          358.0    6.1316    0.0130
  827              827              927              CONDUIT          236.0    4.5173    0.0130
  828              828              928              CONDUIT          256.0    3.0913    0.0130
  829              829              828              CONDUIT          249.5    1.6395    0.0130
  906              906              5                CONDUIT          270.0    4.5640    0.0130
  907              907              906              CONDUIT          148.0    3.5225    0.0130
  908              908              508              CONDUIT          434.0    2.1203    0.0130
  909              909              908              CONDUIT          195.0    1.5694    0.0130
  910              910              908              CONDUIT          274.0    2.5300    0.0130
  921              921              820              CONDUIT          210.0    5.2166    0.0130
  922              922              20               CONDUIT          278.0    4.5731    0.0130
  926              926              25               CONDUIT          280.0    3.1623    0.0130
  927              927              930              CONDUIT          260.0    3.0399    0.0130
  928              928              Out3             CONDUIT          312.0    2.4302    0.0130
  930              930              926              CONDUIT          256.0    3.0913    0.0130
  
  
  *********************
  Cross Section Summary
  *********************
                                        Full     Full     Hyd.     Max.   No. of     Full
  Conduit          Shape               Depth     Area     Rad.    Width  Barrels     Flow
  ---------------------------------------------------------------------------------------
  508              CIRCULAR             4.00    12.57     1.00     4.00        1  4132.84
  804              CIRCULAR             1.50     1.77     0.38     1.50        1    14.21
  805              CIRCULAR             1.00     0.79     0.25     1.00        1     4.87
  806              CIRCULAR             0.67     0.35     0.17     0.67        1     2.70
  807              CIRCULAR             1.00     0.79     0.25     1.00        1     3.63
  808              CIRCULAR             2.00     3.14     0.50     2.00        1    50.36
  809              CIRCULAR             0.67     0.35     0.17     0.67        1     2.25
  810              CIRCULAR             0.87     0.59     0.22     0.87        1     5.45
  811              CIRCULAR             1.25     1.23     0.31     1.25        1     8.22
  812              CIRCULAR             0.67     0.35     0.17     0.67        1     1.37
  813              CIRCULAR             0.67     0.35     0.17     0.67        1     1.91
  814              CIRCULAR             1.00     0.79     0.25     1.00        1     7.69
  815              CIRCULAR             1.00     0.79     0.25     1.00        1     5.80
  816              CIRCULAR             1.50     1.77     0.38     1.50        1    25.86
  817              CIRCULAR             1.25     1.23     0.31     1.25        1     6.43
  819              CIRCULAR             1.00     0.79     0.25     1.00        1     6.65
  820              CIRCULAR             2.00     3.14     0.50     2.00        1    53.83
  821              CIRCULAR             1.00     0.79     0.25     1.00        1     5.31
  822              CIRCULAR             1.00     0.79     0.25     1.00        1     5.65
  825              CIRCULAR             1.00     0.79     0.25     1.00        1     8.85
  826              CIRCULAR             1.00     0.79     0.25     1.00        1     8.82
  827              CIRCULAR             1.50     1.77     0.38     1.50        1    22.33
  828              CIRCULAR             2.00     3.14     0.50     2.00        1    39.78
  829              CIRCULAR             2.00     3.14     0.50     2.00        1    28.97
  906              CIRCULAR             2.00     3.14     0.50     2.00        1    48.33
  907              CIRCULAR             2.00     3.14     0.50     2.00        1    42.46
  908              CIRCULAR             2.00     3.14     0.50     2.00        1    32.94
  909              CIRCULAR             0.87     0.59     0.22     0.87        1     3.08
  910              CIRCULAR             1.00     0.79     0.25     1.00        1     5.67
  921              CIRCULAR             2.00     3.14     0.50     2.00        1    51.67
  922              CIRCULAR             1.50     1.77     0.38     1.50        1    22.46
  926              CIRCULAR             2.00     3.14     0.50     2.00        1    40.23
  927              CIRCULAR             2.00     3.14     0.50     2.00        1    39.44
  928              CIRCULAR             2.50     4.91     0.62     2.50        1    63.94
  930              CIRCULAR             2.00     3.14     0.50     2.00        1    39.78
  
  
  
  *********************************************************
  NOTE: The summary statistics displayed in this report are
  based on results found at every computational time step,  
  not just on results from each reporting time step.
  *********************************************************
  
  ****************
  Analysis Options
  ****************
  Flow Units ............... CFS
  Process Models:
    Rainfall/Runoff ........ YES
    RDII ................... NO
    Snowmelt ............... NO
    Groundwater ............ NO
    Flow Routing ........... YES
    Ponding Allowed ........ NO
    Water Quality .......... YES
  Infiltration Method ...... GREEN_AMPT
  Flow Routing Method ...... DYNWAVE
  Surcharge Method ......... EXTRAN
  Starting Date ............ 11/28/1973 15:00:00
  Ending Date .............. 11/28/1973 16:00:00
  Antecedent Dry Days ...... 4.0
  Report Time Step ......... 00:15:00
  Wet Time Step ............ 00:01:00
  Dry Time Step ............ 01:00:00
  Routing Time Step ........ 30.00 sec
  Variable Time Step ....... YES
  Maximum Trials ........... 8
  Number of Threads ........ 1
  Head Tolerance ........... 0.005000 ft
  
  
  **************************        Volume         Depth
  Runoff Quantity Continuity     acre-feet        inches
  **************************     ---------       -------
  Total Precipitation ......         3.170         0.230
  Evaporation Loss .........         0.043         0.003
  Infiltration Loss ........         1.640         0.119
  Surface Runoff ...........         1.299         0.094
  Final Storage ............         0.192         0.014
  Continuity Error (%) .....        -0.129
  
  
  **************************       TOT.SOL       SUS.SOL          BOD5           COD
  Runoff Quality Continuity            lbs           lbs           lbs           lbs
  **************************    ----------    ----------    ----------    ----------
  Initial Buildup ..........         0.000         0.000         0.000         0.000
  Surface Buildup ..........         0.000         0.000         0.000         0.000
  Wet Deposition ...........       129.236        68.926        43.079        86.157
  Sweeping Removal .........         0.000         0.000         0.000         0.000
  Infiltration Loss ........        66.848        35.652        22.283        44.565
  BMP Removal ..............         0.000         0.000         0.000         0.000
  Surface Runoff ...........        52.951        28.241        17.650        35.301
  Remaining Buildup ........         7.831         4.177         2.610         5.221
  Continuity Error (%) .....         1.242         1.242         1.242         1.242
  
  
  **************************        Volume        Volume
  Flow Routing Continuity        acre-feet      10^6 gal
  **************************     ---------     ---------
  Dry Weather Inflow .......         0.000         0.000
  Wet Weather Inflow .......         0.929         0.303
  Groundwater Inflow .......         0.000         0.000
  RDII Inflow ..............         0.000         0.000
  External Inflow ..........         0.000         0.000
  External Outflow .........         0.923         0.301
  Flooding Loss ............         0.000         0.000
  Evaporation Loss .........         0.000         0.000
  Exfiltration Loss ........         0.000         0.000
  Initial Stored Volume ....         0.000         0.000
  Final Stored Volume ......         0.010         0.003
  Continuity Error (%) .....        -0.384
  
  
  **************************       TOT.SOL       SUS.SOL          BOD5           COD
  Quality Routing Continuity           lbs           lbs           lbs           lbs
  **************************    ----------    ----------    ----------    ----------
  Dry Weather Inflow .......         0.000         0.000         0.000         0.000
  Wet Weather Inflow .......        37.878        20.202        12.626        25.252
  Groundwater Inflow .......         0.000         0.000         0.000         0.000
  RDII Inflow ..............         0.000         0.000         0.000         0.000
  External Inflow ..........         0.000         0.000         0.000         0.000
  External Outflow .........        37.574        20.039        12.525        25.049
  Flooding Loss ............         0.000         0.000         0.000         0.000
  Exfiltration Loss ........         0.000         0.000         0.000         0.000
  Mass Reacted .............         0.000         0.000         0.000         0.000
  Initial Stored Mass ......         0.000         0.000         0.000         0.000
  Final Stored Mass ........         0.415         0.221         0.138         0.276
  Continuity Error (%) .....        -0.291        -0.291        -0.291        -0.291
  
  
  *************************
  Highest Continuity Errors
  *************************
  Node 908 (1.29%)
  
  
  ***************************
  Time-Step Critical Elements
  ***************************
  Link 508 (79.53%)
  Link 815 (18.10%)
  
  
  ********************************
  Highest Flow Instability Indexes
  ********************************
  All links are stable.
  
  
  *************************
  Routing Time Step Summary
  *************************
  Minimum Time Step           :     0.68 sec
  Average Time Step           :    10.68 sec
  Maximum Time Step           :    30.00 sec
  Percent in Steady State     :    -0.00
  Average Iterations per Step :     2.02
  Percent Not Converging      :     0.30
  
  
  ***************************
  Subcatchment Runoff Summary
  ***************************
  
  ------------------------------------------------------------------------------------------------------------------------------
                            Total      Total      Total      Total     Imperv       Perv      Total       Total     Peak  Runoff
                           Precip      Runon       Evap      Infil     Runoff     Runoff     Runoff      Runoff   Runoff   Coeff
  Subcatchment                 in         in         in         in         in         in         in    10^6 gal      CFS
  ------------------------------------------------------------------------------------------------------------------------------
  1                          0.23       0.00       0.00       0.12       0.08       0.00       0.08        0.06     4.89   0.329
  2                          0.23       0.00       0.00       0.12       0.10       0.00       0.10        0.03     2.59   0.423
  3                          0.23       0.00       0.00       0.12       0.10       0.00       0.10        0.01     0.94   0.435
  4                          0.23       0.00       0.00       0.12       0.10       0.00       0.10        0.02     1.81   0.426
  5                          0.23       0.00       0.00       0.11       0.10       0.00       0.10        0.02     1.80   0.444
  6                          0.23       0.00       0.00       0.12       0.10       0.00       0.10        0.01     0.94   0.431
  7                          0.23       0.00       0.00       0.10       0.11       0.00       0.11        0.01     1.32   0.494
  8                          0.23       0.00       0.00       0.11       0.11       0.00       0.11        0.01     1.10   0.483
  9                          0.23       0.00       0.00       0.11       0.11       0.00       0.11        0.01     0.64   0.488
  10                         0.23       0.00       0.00       0.11       0.11       0.00       0.11        0.01     0.63   0.488
  11                         0.23       0.00       0.00       0.11       0.11       0.00       0.11        0.01     0.94   0.489
  12                         0.23       0.00       0.00       0.12       0.10       0.00       0.10        0.01     1.29   0.429
  13                         0.23       0.00       0.00       0.13       0.09       0.00       0.09        0.01     1.28   0.397
  14                         0.23       0.00       0.00       0.11       0.10       0.00       0.10        0.02     2.11   0.427
  15                         0.23       0.00       0.00       0.15       0.07       0.00       0.07        0.01     0.70   0.313
  16                         0.23       0.00       0.00       0.15       0.07       0.00       0.07        0.01     0.65   0.307
  17                         0.23       0.00       0.00       0.10       0.11       0.00       0.11        0.01     1.12   0.491
  18                         0.23       0.00       0.00       0.11       0.11       0.00       0.11        0.01     0.90   0.462
  19                         0.23       0.00       0.00       0.12       0.10       0.00       0.10        0.01     0.92   0.434
  20                         0.23       0.00       0.00       0.12       0.10       0.00       0.10        0.02     1.71   0.430
  21                         0.23       0.00       0.00       0.14       0.08       0.00       0.08        0.00     0.46   0.344
  22                         0.23       0.00       0.00       0.15       0.07       0.00       0.07        0.00     0.39   0.306
  23                         0.23       0.00       0.00       0.16       0.06       0.00       0.06        0.01     0.80   0.259
  24                         0.23       0.00       0.00       0.16       0.06       0.00       0.06        0.01     0.79   0.264
  25                         0.23       0.00       0.00       0.11       0.11       0.00       0.11        0.02     1.48   0.470
  26                         0.23       0.00       0.00       0.12       0.10       0.00       0.10        0.02     1.86   0.416
  27                         0.23       0.00       0.00       0.11       0.11       0.00       0.11        0.02     1.45   0.484
  28                         0.23       0.00       0.00       0.10       0.11       0.00       0.11        0.03     2.46   0.491
  29                         0.23       0.00       0.00       0.09       0.13       0.00       0.13        0.01     1.22   0.556
  
  
  ****************************
  Subcatchment Washoff Summary
  ****************************
  
  ----------------------------------------------------------------------------
                             TOT.SOL       SUS.SOL          BOD5           COD
  Subcatchment                   lbs           lbs           lbs           lbs
  ----------------------------------------------------------------------------
  1                            6.884         3.671         2.295         4.589
  2                            3.487         1.860         1.162         2.325
  3                            1.266         0.675         0.422         0.844
  4                            2.438         1.300         0.813         1.625
  5                            2.421         1.291         0.807         1.614
  6                            1.259         0.671         0.420         0.839
  7                            1.776         0.947         0.592         1.184
  8                            1.473         0.786         0.491         0.982
  9                            0.861         0.459         0.287         0.574
  10                           0.843         0.450         0.281         0.562
  11                           1.254         0.669         0.418         0.836
  12                           1.732         0.924         0.577         1.154
  13                           1.723         0.919         0.574         1.149
  14                           2.848         1.519         0.949         1.899
  15                           0.937         0.500         0.312         0.625
  16                           0.878         0.468         0.293         0.585
  17                           1.503         0.801         0.501         1.002
  18                           1.206         0.643         0.402         0.804
  19                           1.235         0.659         0.412         0.823
  20                           2.292         1.223         0.764         1.528
  21                           0.616         0.329         0.205         0.411
  22                           0.527         0.281         0.176         0.351
  23                           1.068         0.570         0.356         0.712
  24                           1.061         0.566         0.354         0.707
  25                           1.980         1.056         0.660         1.320
  26                           2.495         1.331         0.832         1.663
  27                           1.943         1.036         0.648         1.296
  28                           3.313         1.767         1.104         2.209
  29                           1.635         0.872         0.545         1.090
  ----------------------------------------------------------------------------
  System                      52.951        28.241        17.650        35.301
  
  
  ******************
  Node Depth Summary
  ******************
  
  ---------------------------------------------------------------------------------
                                 Average  Maximum  Maximum  Time of Max    Reported
                                   Depth    Depth      HGL   Occurrence   Max Depth
  Node                 Type         Feet     Feet     Feet  days hr:min        Feet
  ---------------------------------------------------------------------------------
  804                  JUNCTION     0.23     0.36     7.84     0  00:40        0.27
  805                  JUNCTION     0.27     0.42     5.66     0  00:40        0.31
  806                  JUNCTION     0.17     0.27    33.38     0  00:40        0.19
  807                  JUNCTION     0.26     0.42    20.33     0  00:40        0.31
  808                  JUNCTION     0.18     0.27   150.80     0  00:40        0.20
  809                  JUNCTION     0.16     0.25   142.13     0  00:40        0.17
  810                  JUNCTION     0.13     0.20   150.63     0  00:40        0.14
  811                  JUNCTION     0.19     0.29   154.56     0  00:40        0.21
  812                  JUNCTION     0.30     0.51     5.89     0  00:40        0.34
  813                  JUNCTION     0.41     0.92     9.84     0  00:41        0.55
  814                  JUNCTION     0.27     0.42    19.99     0  00:40        0.30
  815                  JUNCTION     0.15     0.23    21.79     0  00:40        0.16
  816                  JUNCTION     0.11     0.16    16.92     0  00:40        0.12
  817                  JUNCTION     0.23     0.35    13.17     0  00:40        0.26
  819                  JUNCTION     0.16     0.25     9.09     0  00:40        0.18
  820                  JUNCTION     0.18     0.27    12.14     0  00:40        0.20
  821                  JUNCTION     0.14     0.22    30.49     0  00:40        0.16
  822                  JUNCTION     0.12     0.19    18.12     0  00:40        0.13
  825                  JUNCTION     0.18     0.28    15.31     0  00:40        0.20
  826                  JUNCTION     0.20     0.31    31.07     0  00:40        0.23
  827                  JUNCTION     0.17     0.26    35.57     0  00:40        0.19
  828                  JUNCTION     0.27     0.41    15.90     0  00:40        0.31
  829                  JUNCTION     0.18     0.28    19.86     0  00:40        0.21
  906                  JUNCTION     0.29     0.45    12.76     0  00:40        0.36
  907                  JUNCTION     0.28     0.44    17.96     0  00:40        0.35
  908                  JUNCTION     0.35     0.55   127.27     0  00:40        0.43
  909                  JUNCTION     0.17     0.27   130.05     0  00:40        0.19
  910                  JUNCTION     0.14     0.22   133.87     0  00:40        0.16
  921                  JUNCTION     0.09     0.13    22.94     0  00:40        0.10
  922                  JUNCTION     0.09     0.14    12.84     0  00:40        0.10
  926                  JUNCTION     0.25     0.39     9.24     0  00:40        0.29
  927                  JUNCTION     0.17     0.26    24.92     0  00:40        0.19
  928                  JUNCTION     0.26     0.40     7.98     0  00:40        0.31
  930                  JUNCTION     0.17     0.26    17.02     0  00:40        0.20
  508                  JUNCTION     0.06     0.09   117.61     0  00:40        0.07
  4                    OUTFALL      0.23     0.36     0.36     0  00:40        0.27
  5                    OUTFALL      0.29     0.45     0.45     0  00:40        0.36
  12                   OUTFALL      0.30     0.51     0.51     0  00:40        0.34
  13                   OUTFALL      0.38     0.63     0.63     0  00:37        0.62
  14                   OUTFALL      0.27     0.42     0.42     0  00:40        0.30
  16                   OUTFALL      0.11     0.16     0.16     0  00:40        0.12
  19                   OUTFALL      0.16     0.25     0.25     0  00:40        0.18
  20                   OUTFALL      0.09     0.14     0.14     0  00:40        0.10
  25                   OUTFALL      0.25     0.38     0.38     0  00:40        0.29
  Out1                 OUTFALL      0.27     0.42     0.42     0  00:40        0.31
  Out2                 OUTFALL      0.00     0.00     0.00     0  00:00        0.00
  Out3                 OUTFALL      0.26     0.40     0.40     0  00:40        0.31
  Out4                 OUTFALL      0.18     0.28     0.28     0  00:40        0.20
  Out5                 OUTFALL      0.00     0.00     0.00     0  00:00        0.00
  Out6                 OUTFALL      0.18     0.27     0.27     0  00:40        0.20
  
  
  *******************
  Node Inflow Summary
  *******************
  
  -------------------------------------------------------------------------------------------------
                                  Maximum  Maximum                  Lateral       Total        Flow
                                  Lateral    Total  Time of Max      Inflow      Inflow     Balance
                                   Inflow   Inflow   Occurrence      Volume      Volume       Error
  Node                 Type           CFS      CFS  days hr:min    10^6 gal    10^6 gal     Percent
  -------------------------------------------------------------------------------------------------
  804                  JUNCTION      1.81     1.81     0  00:40      0.0194      0.0194       0.376
  805                  JUNCTION      1.80     1.80     0  00:40      0.0193      0.0193       0.285
  806                  JUNCTION      0.94     0.94     0  00:40        0.01        0.01       0.018
  807                  JUNCTION      1.32     1.32     0  00:40      0.0142      0.0142       0.296
  808                  JUNCTION      1.10     2.03     0  00:40      0.0117      0.0217       0.175
  809                  JUNCTION      0.64     0.64     0  00:40     0.00687     0.00687       0.049
  810                  JUNCTION      0.63     0.63     0  00:40     0.00673     0.00673       0.020
  811                  JUNCTION      0.94     0.94     0  00:40        0.01        0.01       0.132
  812                  JUNCTION      1.29     1.29     0  00:40      0.0138      0.0138       0.435
  813                  JUNCTION      1.28     2.40     0  00:40      0.0137      0.0257       0.703
  814                  JUNCTION      2.11     2.81     0  00:40      0.0227      0.0302       0.324
  815                  JUNCTION      0.70     0.70     0  00:40     0.00747     0.00747      -0.028
  816                  JUNCTION      0.65     0.65     0  00:40       0.007       0.007       0.139
  817                  JUNCTION      1.12     1.12     0  00:40       0.012       0.012       0.220
  819                  JUNCTION      0.92     0.92     0  00:40     0.00985     0.00985       0.190
  820                  JUNCTION      1.71     2.16     0  00:40      0.0183      0.0232       0.187
  821                  JUNCTION      0.46     0.46     0  00:40     0.00491     0.00491       0.221
  822                  JUNCTION      0.39     0.39     0  00:40      0.0042      0.0042      -0.026
  825                  JUNCTION      1.48     1.48     0  00:40      0.0158      0.0158       0.030
  826                  JUNCTION      1.86     1.86     0  00:40      0.0199      0.0199       0.129
  827                  JUNCTION      1.45     1.45     0  00:40      0.0155      0.0155       0.055
  828                  JUNCTION      2.46     3.67     0  00:40      0.0264      0.0394       0.310
  829                  JUNCTION      1.22     1.22     0  00:40       0.013       0.013       0.195
  906                  JUNCTION      0.00     5.43     0  00:40           0      0.0589       0.174
  907                  JUNCTION      0.00     4.52     0  00:40           0      0.0489       0.114
  908                  JUNCTION      0.00     3.29     0  00:40           0      0.0352       1.304
  909                  JUNCTION      0.00     0.64     0  00:40           0     0.00686       0.432
  910                  JUNCTION      0.00     0.63     0  00:40           0     0.00672       0.353
  921                  JUNCTION      0.00     0.46     0  00:40           0      0.0049       0.528
  922                  JUNCTION      0.00     0.39     0  00:40           0      0.0042       0.311
  926                  JUNCTION      0.00     3.28     0  00:40           0      0.0352       0.591
  927                  JUNCTION      0.00     1.45     0  00:40           0      0.0155       0.296
  928                  JUNCTION      0.00     3.65     0  00:40           0      0.0393       0.606
  930                  JUNCTION      0.00     1.44     0  00:40           0      0.0154       0.546
  508                  JUNCTION      0.00     3.23     0  00:40           0      0.0348       0.052
  4                    OUTFALL       0.00     1.80     0  00:40           0      0.0194       0.000
  5                    OUTFALL       0.00     5.42     0  00:40           0      0.0588       0.000
  12                   OUTFALL       0.00     1.28     0  00:40           0      0.0137       0.000
  13                   OUTFALL       0.00     2.06     0  00:37           0      0.0255       0.000
  14                   OUTFALL       0.00     2.80     0  00:40           0      0.0301       0.000
  16                   OUTFALL       0.00     0.65     0  00:40           0     0.00699       0.000
  19                   OUTFALL       0.00     0.92     0  00:40           0     0.00983       0.000
  20                   OUTFALL       0.00     0.39     0  00:40           0     0.00419       0.000
  25                   OUTFALL       0.00     3.27     0  00:40           0       0.035       0.000
  Out1                 OUTFALL       0.00     1.79     0  00:40           0      0.0192       0.000
  Out2                 OUTFALL       0.00     0.00     0  00:00           0           0       0.000 gal
  Out3                 OUTFALL       0.00     3.64     0  00:40           0      0.0391       0.000
  Out4                 OUTFALL       0.00     1.48     0  00:40           0      0.0158       0.000
  Out5                 OUTFALL       0.00     0.00     0  00:00           0           0       0.000 gal
  Out6                 OUTFALL       0.00     2.16     0  00:40           0      0.0231       0.000
  
  
  **********************
  Node Surcharge Summary
  **********************
  
  No nodes were surcharged.
  
  
  *********************
  Node Flooding Summary
  *********************
  
  No nodes were flooded.
  
  
  ***********************
  Outfall Loading Summary
  ***********************
  
  -------------------------------------------------------------------------------------------------------------------
                         Flow       Avg       Max       Total         Total         Total         Total         Total
                         Freq      Flow      Flow      Volume       TOT.SOL       SUS.SOL          BOD5           COD
  Outfall Node           Pcnt       CFS       CFS    10^6 gal           lbs           lbs           lbs           lbs
  -------------------------------------------------------------------------------------------------------------------
  4                     98.52      0.89      1.80       0.019         2.423         1.292         0.808         1.616
  5                     99.41      2.69      5.42       0.059         7.320         3.904         2.440         4.880
  12                    97.92      0.64      1.28       0.014         1.721         0.918         0.574         1.147
  13                    97.63      1.19      2.06       0.026         3.193         1.703         1.064         2.128
  14                    98.52      1.38      2.80       0.030         3.763         2.007         1.254         2.509
  16                    98.22      0.32      0.65       0.007         0.875         0.467         0.292         0.583
  19                    98.22      0.45      0.92       0.010         1.230         0.656         0.410         0.820
  20                    97.03      0.20      0.39       0.004         0.524         0.280         0.175         0.349
  25                    97.63      1.63      3.27       0.035         4.381         2.337         1.460         2.921
  Out1                  98.22      0.89      1.79       0.019         2.407         1.284         0.802         1.605
  Out2                   0.00      0.00      0.00       0.000         0.000         0.000         0.000         0.000
  Out3                  97.92      1.81      3.64       0.039         4.885         2.605         1.628         3.257
  Out4                  99.11      0.72      1.48       0.016         1.976         1.054         0.659         1.318
  Out5                   0.00      0.00      0.00       0.000         0.000         0.000         0.000         0.000
  Out6                  98.81      1.06      2.16       0.023         2.892         1.542         0.964         1.928
  -------------------------------------------------------------------------------------------------------------------
  System                85.14     13.87     27.50       0.301        37.591        20.048        12.530        25.060
  
  
  ********************
  Link Flow Summary
  ********************
  
  -----------------------------------------------------------------------------
                                 Maximum  Time of Max   Maximum    Max/    Max/
                                  |Flow|   Occurrence   |Veloc|    Full    Full
  Link                 Type          CFS  days hr:min    ft/sec    Flow   Depth
  -----------------------------------------------------------------------------
  508                  CONDUIT      3.22     0  00:40      9.10    0.00    0.07
  804                  CONDUIT      1.80     0  00:40      5.51    0.13    0.24
  805                  CONDUIT      1.79     0  00:40      5.73    0.37    0.42
  806                  CONDUIT      0.94     0  00:40      5.24    0.35    0.54
  807                  CONDUIT      1.31     0  00:40      4.09    0.36    0.43
  808                  CONDUIT      2.02     0  00:40      4.51    0.04    0.21
  809                  CONDUIT      0.64     0  00:40      5.15    0.29    0.38
  810                  CONDUIT      0.63     0  00:40      5.61    0.12    0.24
  811                  CONDUIT      0.93     0  00:40      4.53    0.11    0.22
  812                  CONDUIT      1.28     0  00:40      4.41    0.93    0.77
  813                  CONDUIT      2.06     0  00:37      6.19    1.08    0.97
  814                  CONDUIT      2.80     0  00:40      9.02    0.36    0.42
  815                  CONDUIT      0.70     0  00:40      3.40    0.12    0.33
  816                  CONDUIT      0.65     0  00:40      6.20    0.03    0.11
  817                  CONDUIT      1.12     0  00:40      2.63    0.17    0.50
  819                  CONDUIT      0.92     0  00:40      5.94    0.14    0.25
  820                  CONDUIT      2.16     0  00:40      8.35    0.04    0.14
  821                  CONDUIT      0.46     0  00:40      4.97    0.09    0.17
  822                  CONDUIT      0.39     0  00:40      4.67    0.07    0.16
  825                  CONDUIT      1.48     0  00:40      8.35    0.17    0.28
  826                  CONDUIT      1.85     0  00:40      7.62    0.21    0.35
  827                  CONDUIT      1.45     0  00:40      7.05    0.06    0.17
  828                  CONDUIT      3.65     0  00:40      7.94    0.09    0.20
  829                  CONDUIT      1.21     0  00:40      3.35    0.04    0.17
  906                  CONDUIT      5.42     0  00:40     10.17    0.11    0.23
  907                  CONDUIT      4.51     0  00:40     22.99    0.11    0.22
  908                  CONDUIT      3.23     0  00:40      9.90    0.10    0.16
  909                  CONDUIT      0.64     0  00:40      2.39    0.21    0.47
  910                  CONDUIT      0.63     0  00:40      2.37    0.11    0.39
  921                  CONDUIT      0.46     0  00:40      2.80    0.01    0.10
  922                  CONDUIT      0.39     0  00:40      4.84    0.02    0.09
  926                  CONDUIT      3.27     0  00:40      7.70    0.08    0.19
  927                  CONDUIT      1.44     0  00:40      5.97    0.04    0.13
  928                  CONDUIT      3.64     0  00:40      7.06    0.06    0.16
  930                  CONDUIT      1.44     0  00:40      4.39    0.04    0.16
  
  
  ***************************
  Flow Classification Summary
  ***************************
  
  -------------------------------------------------------------------------------------
                      Adjusted    ---------- Fraction of Time in Flow Class ---------- 
                       /Actual         Up    Down  Sub   Sup   Up    Down  Norm  Inlet 
  Conduit               Length    Dry  Dry   Dry   Crit  Crit  Crit  Crit  Ltd   Ctrl  
  -------------------------------------------------------------------------------------
  508                     1.00   0.01  0.04  0.00  0.00  0.94  0.00  0.00  0.13  0.00
  804                     1.00   0.01  0.00  0.00  0.00  0.99  0.00  0.00  0.00  0.00
  805                     1.00   0.01  0.00  0.00  0.00  0.99  0.00  0.00  0.00  0.00
  806                     1.00   0.01  0.00  0.00  0.19  0.80  0.00  0.00  0.92  0.00
  807                     1.00   0.01  0.00  0.00  0.02  0.97  0.00  0.00  0.82  0.00
  808                     1.00   0.01  0.00  0.00  0.01  0.98  0.00  0.00  0.97  0.00
  809                     1.00   0.01  0.00  0.00  0.01  0.99  0.00  0.00  0.95  0.00
  810                     1.00   0.01  0.00  0.00  0.02  0.98  0.00  0.00  0.97  0.00
  811                     1.00   0.01  0.00  0.00  0.02  0.98  0.00  0.00  0.27  0.00
  812                     1.00   0.01  0.00  0.00  0.01  0.99  0.00  0.00  0.00  0.00
  813                     1.00   0.01  0.00  0.00  0.17  0.82  0.00  0.00  0.04  0.00
  814                     1.00   0.01  0.00  0.00  0.00  0.99  0.00  0.00  0.00  0.00
  815                     1.00   0.01  0.00  0.00  0.29  0.71  0.00  0.00  0.99  0.00
  816                     1.00   0.01  0.01  0.00  0.01  0.97  0.00  0.00  0.00  0.00
  817                     1.00   0.01  0.00  0.00  0.90  0.09  0.00  0.00  0.99  0.00
  819                     1.00   0.01  0.00  0.00  0.00  0.99  0.00  0.00  0.00  0.00
  820                     1.00   0.01  0.01  0.00  0.00  0.99  0.00  0.00  0.00  0.00
  821                     1.00   0.01  0.00  0.00  0.02  0.98  0.00  0.00  0.03  0.00
  822                     1.00   0.01  0.00  0.00  0.01  0.98  0.00  0.00  0.05  0.00
  825                     1.00   0.01  0.00  0.00  0.00  0.99  0.00  0.00  0.00  0.00
  826                     1.00   0.01  0.00  0.00  0.01  0.98  0.00  0.00  0.95  0.00
  827                     1.00   0.01  0.00  0.00  0.01  0.98  0.00  0.00  0.97  0.00
  828                     1.00   0.01  0.00  0.00  0.01  0.98  0.00  0.00  0.44  0.00
  829                     1.00   0.01  0.00  0.00  0.16  0.83  0.00  0.00  0.98  0.00
  906                     1.00   0.01  0.00  0.00  0.00  0.99  0.00  0.00  0.01  0.00
  907                     1.00   0.01  0.00  0.00  0.04  0.95  0.00  0.00  0.79  0.00
  908                     1.00   0.01  0.00  0.00  0.01  0.98  0.00  0.00  0.00  0.00
  909                     1.00   0.01  0.00  0.00  0.90  0.10  0.00  0.00  0.97  0.00
  910                     1.00   0.01  0.00  0.00  0.87  0.12  0.00  0.00  0.98  0.00
  921                     1.00   0.01  0.00  0.00  0.10  0.88  0.00  0.00  0.97  0.00
  922                     1.00   0.01  0.00  0.00  0.00  0.99  0.00  0.00  0.00  0.00
  926                     1.00   0.01  0.00  0.00  0.00  0.99  0.00  0.00  0.00  0.00
  927                     1.00   0.01  0.00  0.00  0.00  0.99  0.00  0.00  0.47  0.00
  928                     1.00   0.01  0.00  0.00  0.01  0.98  0.00  0.00  0.00  0.00
  930                     1.00   0.01  0.00  0.00  0.04  0.94  0.00  0.00  0.97  0.00
  
  
  *************************
  Conduit Surcharge Summary
  *************************
  
  ----------------------------------------------------------------------------
                                                           Hours        Hours 
                         --------- Hours Full --------   Above Full   Capacity
  Conduit                Both Ends  Upstream  Dnstream   Normal Flow   Limited
  ----------------------------------------------------------------------------
  813                         0.01      0.11      0.01      0.17         0.01
  
  
  ***************************
  Link Pollutant Load Summary
  ***************************
  
  ----------------------------------------------------------------------------
                             TOT.SOL       SUS.SOL          BOD5           COD
  Link                           lbs           lbs           lbs           lbs
  ----------------------------------------------------------------------------
  508                          4.349         2.319         1.450         2.899
  804                          2.423         1.292         0.808         1.616
  805                          2.407         1.284         0.802         1.605
  806                          1.254         0.669         0.418         0.836
  807                          1.766         0.942         0.589         1.177
  808                          2.716         1.449         0.905         1.811
  809                          0.860         0.458         0.287         0.573
  810                          0.842         0.449         0.281         0.561
  811                          1.251         0.667         0.417         0.834
  812                          1.721         0.918         0.574         1.147
  813                          3.193         1.703         1.064         2.128
  814                          3.763         2.007         1.254         2.509
  815                          0.936         0.499         0.312         0.624
  816                          0.875         0.467         0.292         0.583
  817                          1.497         0.798         0.499         0.998
  819                          1.230         0.656         0.410         0.820
  820                          2.892         1.542         0.964         1.928
  821                          0.614         0.327         0.205         0.409
  822                          0.526         0.280         0.175         0.351
  825                          1.976         1.054         0.659         1.318
  826                          2.487         1.326         0.829         1.658
  827                          1.939         1.034         0.646         1.292
  828                          4.916         2.622         1.639         3.277
  829                          1.628         0.868         0.543         1.085
  906                          7.320         3.904         2.440         4.880
  907                          6.095         3.250         2.032         4.063
  908                          4.351         2.321         1.450         2.901
  909                          0.856         0.456         0.285         0.570
  910                          0.839         0.447         0.280         0.559
  921                          0.610         0.325         0.203         0.406
  922                          0.524         0.280         0.175         0.349
  926                          4.381         2.337         1.460         2.921
  927                          1.932         1.031         0.644         1.288
  928                          4.885         2.605         1.628         3.257
  930                          1.921         1.025         0.640         1.281
  

  Analysis begun on:  Thu Mar  6 09:51:09 2025
  Analysis ended on:  Thu Mar  6 09:51:09 2025
  Total elapsed time: < 1 sec